Circuit: * C:\Users\Agust\Documents\Facultad\Diseño de Circuitos Electronicos\DISE-O_CIRCUITOS_ELECTRONICOS_1C_2022\Diagrama_en_bloques_regulador.asc

Direct Newton iteration for .op point succeeded.
.step rload=10
.step rload=510
.step rload=1010
.step rload=1510
.step rload=2000

Date: Mon Apr 11 18:07:14 2022
Total elapsed time: 0.466 seconds.

tnom = 27
temp = 27
method = modified trap
totiter = 2049
traniter = 2034
tranpoints = 1018
accept = 1018
rejected = 0
matrix size = 14
fillins = 4
solver = Normal
Matrix Compiler1: 778 bytes object code size  0.4/0.3/[0.1]
Matrix Compiler2: off  [0.1]/0.3/0.2

