Circuit: * C:\Users\Agustín\Documents\DCE\DISE-O_CIRCUITOS_ELECTRONICOS_1C_2022\Diagrama_en_bloques_regulador.asc

Direct Newton iteration for .op point succeeded.
.step rload=10
